Version 4
SHEET 1 880 680
WIRE 240 48 160 48
WIRE 80 128 80 48
WIRE 80 128 16 128
WIRE 144 144 112 144
WIRE 16 160 16 128
WIRE 112 160 112 144
WIRE 112 160 16 160
WIRE 240 160 240 48
WIRE 272 160 256 160
WIRE 112 176 112 160
WIRE 144 176 112 176
WIRE 16 224 16 160
FLAG 16 288 0
SYMBOL 74HCT\\74hct132 192 96 R0
SYMATTR InstName U1
SYMBOL cap 0 224 R0
SYMATTR InstName C1
SYMATTR Value 0.00000001
SYMBOL res 64 32 M90
WINDOW 0 0 56 VBottom 2
WINDOW 3 32 56 VTop 2
SYMATTR InstName R1
SYMATTR Value 470
TEXT 0 312 Left 2 !.tran 0 0.01 0 1u
TEXT 200 16 Left 2 !.lib 74HCT.lib
