Version 4
SHEET 1 880 680
WIRE 80 -16 32 -16
WIRE 224 -16 192 -16
WIRE 368 -16 336 -16
WIRE 480 32 480 -16
WIRE 480 32 112 32
WIRE 112 64 112 32
WIRE 160 64 112 64
WIRE 304 64 272 64
WIRE 32 112 32 -16
WIRE 416 112 416 64
WIRE 416 112 32 112
SYMBOL 74HCT\\74hct04 128 -80 R0
SYMATTR InstName U2
SYMBOL 74HCT\\74hct04 272 -80 R0
SYMATTR InstName U3
SYMBOL 74HCT\\74hct04 416 -80 R0
SYMATTR InstName U4
SYMBOL 74HCT\\74hct04 208 0 R0
SYMATTR InstName U5
SYMBOL 74HCT\\74hct04 352 0 R0
SYMATTR InstName U6
TEXT 30 118 Left 2 !.tran 0 0.01 0 1u
TEXT 168 -80 Left 2 !.lib 74HCT.lib
